Version 4
SHEET 1 880 680
WIRE 64 64 -64 64
WIRE 96 64 64 64
WIRE 192 64 176 64
WIRE 256 64 192 64
WIRE -64 80 -64 64
WIRE 256 80 256 64
WIRE 480 80 400 80
WIRE 64 96 64 64
WIRE 192 96 192 64
WIRE 64 160 -64 160
WIRE 192 160 64 160
WIRE 480 160 192 160
WIRE 480 176 480 160
FLAG 480 176 0
FLAG -64 64 ANT
IOPIN -64 64 BiDir
SYMBOL voltage 480 64 R0
WINDOW 123 0 0 Left 0
WINDOW 39 0 0 Left 0
SYMATTR InstName V1
SYMATTR Value SINE(0 1 2.4G)
SYMBOL res -80 64 R0
SYMATTR InstName R1
SYMATTR Value 100
SYMBOL res 416 64 R90
WINDOW 0 0 56 VBottom 2
WINDOW 3 32 56 VTop 2
SYMATTR InstName R2
SYMATTR Value 39
SYMBOL cap 320 64 R90
WINDOW 0 0 32 VBottom 2
WINDOW 3 32 32 VTop 2
SYMATTR InstName C2
SYMATTR Value 11p
SYMBOL cap 48 96 R0
SYMATTR InstName C1
SYMATTR Value 2.4p
SYMBOL cap 176 96 R0
SYMATTR InstName C3
SYMATTR Value 3p
SYMBOL ind 80 80 R270
WINDOW 0 32 56 VTop 2
WINDOW 3 5 56 VBottom 2
SYMATTR InstName L1
SYMATTR Value 2.2n
TEXT -80 200 Left 2 !.tran 0 2ns 0 0.1ns startup
